Projects Study of the role of protein posttranslational modification by SUMO (Small Ubiquitin-like MOdifier) in ab... http://t.co/EnxPNYHBmG